/*--------------------------------*- C++ -*----------------------------------*\
| =========                 |                                                 |
| \\      /  F ield         | OpenFOAM: The Open Source CFD Toolbox           |
|  \\    /   O peration     | Version:  v2206                                 |
|   \\  /    A nd           | Website:  www.openfoam.com                      |
|    \\/     M anipulation  |                                                 |
\*---------------------------------------------------------------------------*/
FoamFile
{
    version     2.0;
    format      ascii;
    class       dictionary;
    object      blockMeshDict;
}
// * * * * * * * * * * * * * * * * * * * * * * * * * * * * * * * * * * * * * //

scale    1;

xmin    2.67;
xmax    2.74;
ymin    -0.01;
ymax     0.01;
zmin    -0.141;
zmax     -0.023;


vertices
(
    ( $xmin $ymin $zmin )
    ( $xmax $ymin $zmin )
    ( $xmax $ymax $zmin )
    ( $xmin $ymax $zmin )
    ( $xmin $ymin $zmax )
    ( $xmax $ymin $zmax )
    ( $xmax $ymax $zmax )
    ( $xmin $ymax $zmax )
);

blocks
(
    hex (0 1 2 3 4 5 6 7) ( 24 8 54 ) simpleGrading ( 1 1 1 )
);

edges
(
);

boundary
(
    overset-2
    {
        type overset;
        faces
        (
            (0 4 7 3)

            (1 2 6 5)
       
            (0 1 5 4)
           
            (3 7 6 2)
            
            (0 3 2 1)
            (4 5 6 7)
        );
    }
);


// ************************************************************************* //