/*--------------------------------*- C++ -*----------------------------------*\
| =========                 |                                                 |
| \\      /  F ield         | OpenFOAM: The Open Source CFD Toolbox           |
|  \\    /   O peration     | Version:  v2206                                 |
|   \\  /    A nd           | Website:  www.openfoam.com                      |
|    \\/     M anipulation  |                                                 |
\*---------------------------------------------------------------------------*/
FoamFile
{
    version     2.0;
    format      ascii;
    class       pointVectorField;
    object      pointDisplacement;
}
// * * * * * * * * * * * * * * * * * * * * * * * * * * * * * * * * * * * * * //

dimensions      [0 1 0 0 0 0 0];

internalField   uniform (0 0 0);

boundaryField
{
    #includeEtc "caseDicts/setConstraintTypes"

    ".*"
    {
        type            fixedValue;
        value           uniform (0 0 0);
    }

    "(hull*.*|rudder)"
    {
        type            calculated;
        value           uniform (0 0 0);
    }


    overset-1
    {
        patchType       overset;
        type            zeroGradient;
    }
    
    overset-2
    {
        patchType       overset;
        type            zeroGradient;
    }    
}


// ************************************************************************* //
